NOVO24/1726516/Vaos.dss
! ==========================================================
! VAOS DE SAIDA — barra de MT da SE -> cabeceira do alimentador
! Derivado de CTMT.BARR e CTMT.UNI_TR_AT: a BDGD nao modela o
! arranjo interno da subestacao, so o vinculo logico.
! Cada vao e o disjuntor de saida do alimentador.
! ==========================================================
New Line.VAO_AAY13 phases=3 Bus1=195291197.1.2.3 Bus2=segm_2636950852.1.2.3 Switch=y r1=0.0001 r0=0.0001 x1=0 x0=0 c1=0 c0=0
New Monitor.M_AAY13 element=Line.VAO_AAY13 terminal=1 mode=1 ppolar=no
New Line.VAO_AAY17 phases=3 Bus1=195291197.1.2.3 Bus2=segm_2636950803.1.2.3 Switch=y r1=0.0001 r0=0.0001 x1=0 x0=0 c1=0 c0=0
New Monitor.M_AAY17 element=Line.VAO_AAY17 terminal=1 mode=1 ppolar=no
New Line.VAO_AAY16 phases=3 Bus1=195291197.1.2.3 Bus2=segm_2636950831.1.2.3 Switch=y r1=0.0001 r0=0.0001 x1=0 x0=0 c1=0 c0=0
New Monitor.M_AAY16 element=Line.VAO_AAY16 terminal=1 mode=1 ppolar=no
